53

Fe        -2.40751       -1.23965       -2.36740
Fe        -3.36541       -3.37323       -1.33642
C          0.45339       -1.91430       -2.19637
C          1.78945       -1.82853       -1.56004
H          0.33973       -1.13703       -2.97098
H         -0.34529       -1.80904       -1.44439
S         -2.94303       -1.62566       -0.00736
S         -4.73745        0.02322       -2.60327
S         -3.27387       -3.14601       -3.54826
N         -1.78441        0.88292       -1.88410
C         -1.86871        1.76432       -3.05129
C         -1.51980        1.03633       -4.35603
O         -1.76762       -0.22058       -4.39225
O          2.04121       -0.48532       -0.85165
C          2.99529       -1.99249       -2.48563
O          2.82016       -1.44621       -3.79937
C          4.09095       -1.15238       -1.82241
O          5.14464       -0.80092       -2.72578
C          3.29169        0.04547       -1.29077
O         -1.06185        1.71266       -5.31349
H          4.54118       -1.71206       -0.98793
H          3.24468       -3.06483       -2.55088
H         -2.43627        1.16794       -1.15140
H         -0.84193        0.86735       -1.48935
H          2.14471       -2.01916       -4.28268
H          4.68913       -0.76443       -3.59808
H          1.88386       -2.57534       -0.75548
H          3.15782        0.77879       -2.11329
H          3.79150        0.55412       -0.44966
H         -2.92608        2.06453       -3.14829
H         -1.25198        2.67330       -2.96469
C         -4.98102        0.02085       -4.41793
H         -6.03642        0.19456       -4.68129
H         -4.66721       -0.96247       -4.80409
H         -4.36994        0.79190       -4.91180
N         -2.06022       -4.87265       -0.78906
C         -1.06552       -4.70471        0.08452
N         -0.20479       -5.74560        0.00508
C         -0.65843       -6.62043       -0.96263
C         -1.81536       -6.06474       -1.45193
H         -2.47318       -6.42039       -2.23714
H          0.64095       -5.85653        0.55871
H         -0.12747       -7.53332       -1.20639
H         -0.94930       -3.84779        0.73934
N         -5.37923       -3.79606       -1.00054
C         -6.30998       -2.92016       -1.38363
N         -7.53791       -3.40145       -1.07135
C         -6.03876       -4.87015       -0.42732
C         -7.39350       -4.63501       -0.46601
H         -6.08620       -1.95621       -1.86133
H         -5.50238       -5.72670       -0.03203
H         -8.24520       -5.21435       -0.12844
H         -8.42023       -2.92962       -1.25259
